&NAMECECFG
    ECE_CPL_NEMO_LIM = .false.
    ECE_CPL_FESOM_FESIM = .true.
/

&NAMAWICFG
    ECE_AWI_CPL_FESOM = .true.
/

&NAMFOCICFG
/

&NAMIOS
    CFRCF = './rcf'
    CIOSPRF = './srf'
/

&NAMFPG
    NFPLEV = 91
    NFPMAX = 159
/

&NAMCVER
    LVERTFE = .true.
    NVSCH = 3
    LRNHC1 = .false.
    LVFE_GWMPA = .true.
    LVFE_GW = .true.
    LVFE_Z_TERM = .true.
    LVFE_X_TERM = .true.
    LVFE_LAPL_BC = .true.
    LVFE_LAPL = .true.
/

&NAMMCC
    LMCCIEC = .false.
    LMCCEC = .true.
    LMCC04 = .false.
    LMCCDYNSEAICE = .true.
/

&NAMTRANS
    LFFTW = .false.
/

&NAMRES
    NFRRES = 1
    NRESTS = -1, -24
/

&NAERAD
    NRPROMA = -8
    LCMIP6 = .true.
    SSPNAME = 'historical'
    CMIP6DATADIR = '/work/ollie/jstreffi/input/oifs-43r3/cmip6-data'
    LA4XCO2 = .false.
    L1PCTCO2 = .false.
    LCMIP5 = .false.
    CMIP5DATADIR = '/work/ollie/jstreffi/input/oifs-43r3/TL159L60//../cmip5-data/'
    NCMIPFIXYR = 1990
    NRCP = 0
    LHVOLCA = .false.
    CRTABLEDIR = '/work/ollie/jstreffi/input/oifs-43r3/rtables/'
    LECOMPGRID = .true.
/

&NAMARG
    LSLAG = .true.
    NCONF = 1
    UTSTEP = 3600
    CUSTOP = 't24'
    CNMEXP = 'awi3'
/

&NAMCMIP
    LGHGCMIP5 = .true.
    LGHGPI = .true.
/

&NAEPHY
    LEPHYS = .true.
    LEVDIF = .true.
    LESURF = .true.
    LECOND = .true.
    LECUMF = .true.
    LEPCLD = .true.
    LEEVAP = .true.
    LEVGEN = .true.
    LESSRO = .true.
    LECURR = .false.
    LEOCWA = .true.
    LEGWDG = .true.
    LEGWWMS = .true.
    LEOZOC = .true.
    LEQNGT = .true.
    LERADI = .true.
    LERADS = .true.
    LESICE = .true.
    LEO3CH = .true.
    LEDCLD = .true.
    LDUCTDIA = .false.
    LELIGHT = .false.
    RDEGREW = 0.5
    RSOUTW = -81.0
    RNORTW = 81.0
    LBUD23 = .false.
    LWCOU = .true.
    LWCOU2W = .true.
    NSTPW = 1
/

&NAMPAR1
    NOUTTYPE = 1
    LSPLIT = .true.
    NWRTOUT = 4
    NFLDIN = 0
    NSTRIN = 1
/

&NAMPAR0
    LSTATS = .true.
    LDETAILED_STATS = .false.
    LSYNCSTATS = .false.
    LSTATSCPU = .false.
    NPRNT_STATS = 70
    LBARRIER_STATS = .false.
    LBARRIER_STATS2 = .false.
    NPROC = 18
    NSPECRESMIN = 160
    NOUTPUT = 1
    MP_TYPE = 2
    MBX_SIZE = 3200000
/

&NAMDYNA
    LGRADSP = .false.
    LRFRIC = .true.
/

&NAMDYNCORE
    LAQUA = .false.
/

&NAMDYN
    LMASCOR = .true.
    LMASDRY = .false.
    NITMP = 5
/

&NAMCLDP
    SCLCT_SWITCH = 2
/

&NAMCT0
    LNHDYN = .false.
    CTYPE = 'fc'
    CFCLASS = 'rd'
    LARPEGEF = .false.
    LFDBOP = .false.
    LSMSSIG = .false.
    LSPRT = .true.
    LTWOTL = .true.
    LSLPHY = .true.
    N3DINI = 0
    NFRDHP = 12
    NFRDHFD = 1
    NFRSDI = 1
    NFRHIS = 6
    NFRPOS = 6
    NFRMASSCON = 1
    NFPOS = 2
    NPOSTS = 0
    NHISTS = 0
    NMASSCONS = 0
    NFRCO = 0
    NFRDHFZ = 48
    NDHFZTS = 0
    NDHFDTS = 0
    NUNDEFLD = 1
/

&NAMDDH
    BDEDDH(1:6,1) = 4.0, 1.0, 0.0, 50.0, 0.0, 49.0
    NDHKD = 120
    LHDZON = .false.
    LHDEFZ = .false.
    LHDDOP = .false.
    LHDEFD = .false.
    LHDGLB = .true.
    LHDPRG = .true.
    LHDHKS = .true.
/

&NAMGFL
    NERA40 = 14
    YQ_NL%LGP = .true.
    YQ_NL%LSP = .false.
    YL_NL%LGP = .true.
    YI_NL%LGP = .true.
    YA_NL%LGP = .true.
    YO3_NL%LGP = .true.
    LTRCMFMG = .true.
    YS_NL%LMASSFIX = .true.
    YR_NL%LMASSFIX = .true.
    YI_NL%LMASSFIX = .true.
    YL_NL%LMASSFIX = .true.
    YQ_NL%LMASSFIX = .true.
/

&NAMFPC
    CFPFMT = 'MODEL'
    NFP3DFP = 12
    NFP3DFT = 0
    NFP3DFV = 0
    NFP2DF = 0
    NFPPHY = 13
    MFP3DFP(:) = 3, 129, 130, 131, 132, 138, 155, 157, 133, 246, 247, 248
    MFP3DFT(:) = ,
    MFP3DFV = ,
    MFP2DF(:) = ,
    MFPPHY(:) = 167, 228, 164, 243, 31, 179, 142, 143, 165, 166, 169, 176,
                235
    NRFP3S(:) = 1, 2, 3, 4, 5, 6, 7, 8, 9, 10, 11, 12, 13, 14, 15, 16, 17,
                18, 19, 20, 21, 22, 23, 24, 25, 26, 27, 28, 29, 30, 31,
                32, 33, 34, 35, 36, 37, 38, 39, 40, 41, 42, 43, 44, 45,
                46, 47, 48, 49, 50, 51, 52, 53, 54, 55, 56, 57, 58, 59,
                60
    RFP3P(:) = 100000, 92500, 85000, 70000, 60000, 50000, 40000, 30000,
               25000, 20000, 15000, 10000, 7000, 5000, 3000, 2000, 1000,
               500, 100
    RFP3TH(:) = 315.0, 325.0, 330.0
    NFPCLI = 0
    LFPQ = .false.
    LTRACEFP = .false.
    RFPCORR = 60000.0
/

&NAMPPC
    LRSACC = .true.
/

&NAMFPD
    NLAT = 320
    NLON = 640
/

&NAMDIM
    NPROMA = -16
/

&NAMRLX
/

&NAMVAR
    LMODERR = .false.
    LJCDFI = .false.
    LUSEJCDFI = .false.
/

&NAMVV0
    LLFORCE_READ = .false.
/

&NAMNMI
    LASSI = .false.
/

&NAEAER
/

&NALBAR
/

&NALORI
/

&NAM_DISTRIBUTED_VECTORS
/

&NAM926
/

&NAMAFN
/

&NAMANA
/

&NAMARPHY
/

&NAMCA
/

&NAMCAPE
/

&NAMCFU
/

&NAMCHK
/

&NAMCHET
/

&NAMCLTC
/

&NAMCOM
/

&NAMCOS
/

&NAMCTAN
/

&NAMCUMF
/

&NAMCUMFS
/

&NAMCT1
/

&NAMCVA
/

&NAMDFHD
/

&NAMDFI
/

&NAMDIF
/

&NAMDIMO
/

&NAMDMSP
/

&NAMDPHY
/

&NAMEMIS_CONF
/

&NAMENKF
/

&NAMFA
/

&NAMFFT
/

&NAMFPDY2
/

&NAMFPDYH
/

&NAMFPDYP
/

&NAMFPDYS
/

&NAMFPDYT
/

&NAMFPDYV
/

&NAMFPEZO
/

&NAMFPF
/

&NAMFPIOS
/

&NAMFPPHY
/

&NAMFPSC2
/

&NAMFPSC2_DEP
/

&NAMFY2
/

&NAMGEM
/

&NAMGMS
/

&NAMGOES
/

&NAMGOM
/

&NAMGRIB
/

&NAMGWD
/

&NAMGWWMS
/

&NAMHLOPT
/

&NAMINI
/

&NAMIOMI
/

&NAMJBCODES
/

&NAMJFH
/

&NAMJG
/

&NAMJO
/

&NAMKAP
/

&NAMLCZ
/

&NAMLEG
/

&NAMLFI
/

&NAMMCUF
/

&NAMMETEOSAT
/

&NAMMTS
/

&NAMMTSAT
/

&NAMMTT
/

&NAMMUL
/

&NAMNASA
/

&NAMNN
/

&NAMNPROF
/

&NAMNUD
/

&NAMOBS
/

&NAMONEDVAR
/

&NAMOPH
/

&NAMOPTCMEM
/

&NAMPARAR
/

&NAMPHY
/

&NAMPHY0
/

&NAMPHY1
/

&NAMPHY2
/

&NAMPHY3
/

&NAMPHYDS
/

&NAMPONG
/

&NAMRAD15
/

&NAMRADCMEM
/

&NAMRCOEF
/

&NAMRINC
/

&NAMRIP
/

&NAMSATS
/

&NAMSCC
/

&NAMSCEN
/

&NAMSCM
/

&NAMSENS
/

&NAMSIMPHL
/

&NAMSKF
/

&NAMSPSDT
/

&NAMSPP
/

&NAMSSMI
/

&NAMSTA
/

&NAMSTOPH
/

&NAMTCWV
/

&NAMTESTVAR
/

&NAMTOPH
/

&NAMTOVS
/

&NAMTRAJP
/

&NAMTRM
/

&NAMVARBC
/

&NAMVARBC_AIREP
/

&NAMVARBC_ALLSKY
/

&NAMVARBC_GBRAD
/

&NAMVARBC_RAD
/

&NAMVARBC_SFCOBS
/

&NAMVARBC_TCWV
/

&NAMVARBC_TO3
/

&NAMVAREPS
/

&NAMVDOZ
/

&NAMVFP
/

&NAMVRTL
/

&NAMVV1
/

&NAMVV2
/

&NAMVWRK
/

&NAMWAVELETJB
/

&NAMXFU
/

&NAMZDI
/

&NAPHLC
/

&NAV1IS
/

&NAEPHLI
/

&NAMPPVI
/

&NAMSPNG
/

&NAMTHLIM
/

&NAMOOPS
/

&NAMINTFLEX
/

&NAMIAU
/

&NAMDIM_TRAJ
/

&NAMVDF
/

&NAMGWDIAG
/

&NAMTRANS0
/

&NAMMETHOX
/

&NAM_ATLAS_IFS
/

&NAETLDIAG
/

&NAMORB
    LCORBMD = .false.
    ORBMODE = 'variable_year'
    ORBIY = 2000
/
