!-----------------------------------------------------------------------
&NAMRNFMAP
!-----------------------------------------------------------------------
    RunLengthSec = 432000
    TimeStepSec  = 3600
    RunoffMapFileName = "masks.nc"
!-----------------------------------------------------------------------
/
