&NAMRNFMAP
    RunLengthSec = 86400
    TimeStepSec  = 10800
/
