cat << EOF
!-----------------------------------------------------------------------
&NAMRNFMAP
!-----------------------------------------------------------------------
    RunLengthSec = ${RUNTIME_rnfmap}
    TimeStepSec  = ${TIME_STEP_oifs}
!-----------------------------------------------------------------------
/
EOF
