&NAMORB
    LCORBMD = .false.
    ORBMODE = 'variable_year'
    ORBIY = 1850
/

&NAMAWICFG
/

&NAMFOCICFG
    FOCI_CPL_NEMO_LIM = .true.
/

&NAMIOS
    CFRCF = './rcf'
    CIOSPRF = './srf'
/

&NAMFPG
    NFPLEV = 91
    NFPMAX = 95
/

&NAMCVER
    LVERTFE = .true.
    NVSCH = 3
    LRNHC1 = .false.
    LVFE_GWMPA = .true.
    LVFE_GW = .true.
    LVFE_Z_TERM = .true.
    LVFE_X_TERM = .true.
    LVFE_LAPL_BC = .true.
    LVFE_LAPL = .true.
/

&NAMMCC
    LMCCEC = .true.
    LMCCIEC = .false.
/

&NAMTRANS
    LFFTW = .true.
/

&NAMRES
    NFRRES = 120
    NRESTS(1) = -120
/

&NAERAD
    CRTABLEDIR = '/p/project/hirace/foci_input2/OPENIFS_CY43_GENERAL/rtables/'
    NRPROMA = 0
    LECOMPGRID = .true.
    LCMIP6 = .true.
    CMIP6DATADIR = '/p/project/hirace/foci_input2/OPENIFS_CY43_GENERAL/cmip6-data/'
    NCMIPFIXYR = 1850
/

&NAEPHY
    LEPHYS = .true.
    LEVDIF = .true.
    LESURF = .true.
    LECOND = .true.
    LECUMF = .true.
    LEPCLD = .true.
    LEEVAP = .true.
    LEVGEN = .true.
    LESSRO = .true.
    LECURR = .false.
    LEOCWA = .true.
    LEGWDG = .true.
    LEGWWMS = .true.
    LEOZOC = .true.
    LEQNGT = .true.
    LERADI = .true.
    LERADS = .true.
    LESICE = .true.
    LEO3CH = .true.
    LEDCLD = .true.
    LDUCTDIA = .false.
    LELIGHT = .false.
    LWCOU = .false.
    LWCOU2W = .false.
    NSTPW = 1
    RDEGREW = 0.5
    RSOUTW = -81.0
    RNORTW = 81.0
/

&NAMPAR1
    NOUTTYPE = 1
    LSPLIT = .true.
    NWRTOUT = 4
    NFLDIN = 0
    NSTRIN = 1
/

&NAMPAR0
    LSTATS = .true.
    LDETAILED_STATS = .false.
    LSYNCSTATS = .false.
    LSTATSCPU = .false.
    NPRNT_STATS = 22
    LBARRIER_STATS = .false.
    LBARRIER_STATS2 = .false.
    NPROC = 31
    NSPECRESMIN = 96
    NOUTPUT = 1
    MP_TYPE = 2
    MBX_SIZE = 128000000
/

&NAMDYNA
    LGRADSP = .false.
    LRFRIC = .true.
/

&NAMDYNCORE
    LAQUA = .false.
/

&NAMDYN
    NITMP = 5
    LMASCOR = .true.
    LMASDRY = .false.
/

&NAMCT0
    LNHDYN = .false.
    CTYPE = 'fc'
    CFCLASS = 'rd'
    LARPEGEF = .false.
    LFDBOP = .false.
    LSMSSIG = .false.
    LSPRT = .true.
    LTWOTL = .true.
    LSLPHY = .true.
    N3DINI = 0
    NFRDHP = 12
    NFRDHFD = 1
    NFRSDI = 1
    NFRPOS = 6
    NFRHIS = 6
    NFRMASSCON = 1
    NFPOS = 2
    NPOSTS = 0
    NHISTS = 0
    NMASSCONS = 0
    NFRCO = 0
    NFRDHFZ = 48
    NDHFZTS = 0
    NDHFDTS = 0
    NUNDEFLD = -999999
    LXIOS = .true.
/

&NAMDDH
    BDEDDH(1:6,1) = 4.0, 1.0, 0.0, 50.0, 0.0, 49.0
    NDHKD = 120
    LHDZON = .false.
    LHDEFZ = .false.
    LHDDOP = .false.
    LHDEFD = .false.
    LHDGLB = .true.
    LHDPRG = .true.
    LHDHKS = .true.
/

&NAMIO_SERV
    NPROC_IO = 2
    NPROCESS_LEVEL = 5
    NIO_SERV_METHOD = 2
    NMSG_LEVEL_CLIENT = 0
    NMSG_LEVEL_SERVER = 1
/

&NAMGFL
    NERA40 = 14
    YQ_NL%LGP = .true.
    YQ_NL%LSP = .false.
    YL_NL%LGP = .true.
    YI_NL%LGP = .true.
    YA_NL%LGP = .true.
    YO3_NL%LGP = .true.
    LTRCMFMG = .true.
    YS_NL%LMASSFIX = .true.
    YR_NL%LMASSFIX = .true.
    YI_NL%LMASSFIX = .true.
    YL_NL%LMASSFIX = .true.
    YQ_NL%LMASSFIX = .true.
/

&NAMFPC
    CFPFMT = 'MODEL'
    NFP3DFS = 0
    NFP3DFT = 0
    NFP3DFV = 0
    NFP2DF = 2
    MFP2DF = 129, 152
    NFP3DFP = 6
    MFP3DFP = 131, 132, 130, 133, 135, 129
    NFPPHY = 34
    MFPPHY(:) = 167, 235, 151, 134, 165, 166, 168, 228, 144, 143, 182, 44,
                180, 181, 146, 147, 175, 176, 169, 177, 210, 211, 164, 212,
                178, 179, 208, 209, 78, 79, 205, 206, 151131, 151132
    RFP3P(:) = 100000.0, 92500.0, 85000.0, 50000.0, 30000.0, 10000.0, 5000.0,
               1000.0, 500.0, 100.0, 50.0, 10.0
    NFPCLI = 0
    LFPQ = .false.
    LTRACEFP = .false.
    RFPCORR = 60000.0
/

&NAMFPD
    NLAT = 192
    NLON = 384
/

&NAMDIM
    NPROMA = -16
/

&NAMARG
    LSLAG = .true.
    NCONF = 1
    UTSTEP = 3600
    CUSTOP = 't120'
    CNMEXP = 'ECE3'
/

&NAMRLX
/

&NAMVAR
    LMODERR = .false.
    LJCDFI = .false.
    LUSEJCDFI = .false.
/

&NAETLDIAG
/

&NAMVV0
    LLFORCE_READ = .false.
/

&NAEAER
/

&NALBAR
/

&NALORI
/

&NAM_DISTRIBUTED_VECTORS
/

&NAM926
/

&NAMAFN
/

&NAMANA
/

&NAMARPHY
/

&NAMCA
/

&NAMCAPE
/

&NAMCFU
/

&NAMCHK
/

&NAMCHET
/

&NAMCLDP
    SCLCT_SWITCH = 0
/

&NAMCLTC
/

&NAMCOM
/

&NAMCOS
/

&NAMCTAN
/

&NAMCUMF
/

&NAMCUMFS
/

&NAMCT1
/

&NAMCVA
/

&NAMDFHD
/

&NAMDFI
/

&NAMDIF
/

&NAMDIMO
/

&NAMDMSP
/

&NAMDPHY
/

&NAMEMIS_CONF
/

&NAMENKF
/

&NAMFA
/

&NAMFFT
/

&NAMFPDY2
/

&NAMFPDYH
/

&NAMFPDYP
/

&NAMFPDYS
/

&NAMFPDYT
/

&NAMFPDYV
/

&NAMFPEZO
/

&NAMFPF
/

&NAMFPIOS
/

&NAMFPPHY
/

&NAMFPSC2
/

&NAMFPSC2_DEP
/

&NAMFY2
/

&NAMGEM
/

&NAMGMS
/

&NAMGOES
/

&NAMGOM
/

&NAMGRIB
/

&NAMGWD
/

&NAMGWWMS
/

&NAMHLOPT
/

&NAMINI
/

&NAMIOMI
/

&NAMJBCODES
/

&NAMJFH
/

&NAMJG
/

&NAMJO
/

&NAMKAP
/

&NAMLCZ
/

&NAMLEG
/

&NAMLFI
/

&NAMMCUF
/

&NAMMETEOSAT
/

&NAMMTS
/

&NAMMTSAT
/

&NAMMTT
/

&NAMMUL
/

&NAMNMI
    LASSI = .false.
/

&NAMNASA
/

&NAMNN
/

&NAMNPROF
/

&NAMNUD
/

&NAMOBS
/

&NAMONEDVAR
/

&NAMOPH
/

&NAMOPTCMEM
/

&NAMPARAR
/

&NAMPHY
/

&NAMPHY0
/

&NAMPHY1
/

&NAMPHY2
/

&NAMPHY3
/

&NAMPHYDS
/

&NAMPPC
    LRSACC = .true.
/

&NAMPONG
/

&NAMRAD15
/

&NAMRADCMEM
/

&NAMRCOEF
/

&NAMRINC
/

&NAMRIP
/

&NAMSATS
/

&NAMSCC
/

&NAMSCEN
/

&NAMSCM
/

&NAMSENS
/

&NAMSIMPHL
/

&NAMSKF
/

&NAMSPSDT
/

&NAMSPP
/

&NAMSSMI
/

&NAMSTA
/

&NAMSTOPH
/

&NAMTCWV
/

&NAMTESTVAR
/

&NAMTOPH
/

&NAMTOVS
/

&NAMTRAJP
/

&NAMTRM
/

&NAMVARBC
/

&NAMVARBC_AIREP
/

&NAMVARBC_ALLSKY
/

&NAMVARBC_GBRAD
/

&NAMVARBC_RAD
/

&NAMVARBC_SFCOBS
/

&NAMVARBC_TCWV
/

&NAMVARBC_TO3
/

&NAMVAREPS
/

&NAMVDOZ
/

&NAMVFP
/

&NAMVRTL
/

&NAMVV1
/

&NAMVV2
/

&NAMVWRK
/

&NAMWAVELETJB
/

&NAMXFU
/

&NAMZDI
/

&NAPHLC
/

&NAV1IS
/

&NAEPHLI
/

&NAMPPVI
/

&NAMSPNG
/

&NAMTHLIM
/

&NAMOOPS
/

&NAMINTFLEX
/

&NAMIAU
/

&NAMDIM_TRAJ
/

&NAMVDF
/

&NAMGWDIAG
/

&NAMTRANS0
/

&NAMMETHOX
/

&NAM_ATLAS_IFS
/
