! -----------------------------------------------------------------------------
! *** NAMECECFG: EC-Earth specific configuration parameters
! -----------------------------------------------------------------------------
&NAMECECFG ! DONE
    ECE_CPL_NEMO_LIM = false,        ! Whether IFS is coupled to NEMO/LIM
    ECE_CPL_FESOM_FESIM = true,  ! Whether IFS is coupled to FESOM/FESIM
/
&NAMAWICFG
    ECE_AWI_CPL_FESOM = true, ! Whether IFS is coupled to FESOM2
/

&NAMFOCICFG
/

&NAMIOS
  CFRCF            = "./rcf",
  CIOSPRF          = "./srf",
/
&NAMFPG
  NFPLEV           = 60,
  NFPMAX           = 159,
/
&NAMCVER
  LVERTFE          = TRUE,
  NVSCH            = 3,
  LRNHC1           = FALSE,
  LVFE_GWMPA       = TRUE,
  LVFE_GW          = TRUE,
  LVFE_Z_TERM      = TRUE,
  LVFE_X_TERM      = TRUE,
  LVFE_LAPL_BC     = TRUE,
  LVFE_LAPL        = TRUE,
/
&NAMMCC
  LMCCIEC          = FALSE,
  LMCCEC           = TRUE,
  LMCC04 	   = FALSE,
  LMCCDYNSEAICE    = TRUE,
/
&NAMTRANS
  LFFTW		   = FALSE,
/
&NAMRES
  NFRRES           = 1,
  NRESTS           = -1,-48,
/
&NAERAD
  NRPROMA        = -8,
  LCMIP6         = TRUE,
  SSPNAME        = 'historical',
  CMIP6DATADIR   = '/work/ollie/jstreffi/input/oifs-43r3/TL159L60//../cmip6-data/',
  LA4xCO2        = FALSE,
  L1PCTCO2       = FALSE,
  LCMIP5         = FALSE,
  CMIP5DATADIR   = '/work/ollie/jstreffi/input/oifs-43r3/TL159L60//../cmip5-data/',
  NCMIPFIXYR     = 1990,
  NRCP           = 0,
  LHVOLCA        = FALSE,
  CRTABLEDIR     ='/work/ollie/jstreffi/input/oifs-43r3/rtables/',
  LECOMPGRID     = FALSE,
/
&NAMARG
  LSLAG 		   = TRUE,
  NCONF            = 1,
  UTSTEP            = 3600.0,
  CUSTOP           = 'h8760',
  CNMEXP           = 'awi3',
/
&NAMCMIP
  LGHGCMIP5        = TRUE, 		! read CMIP5 gas
  LGHGPI           = TRUE, 		! pi-control run (keep GHG at 1850 levels)
/
&NAEPHY
  LEPHYS           = TRUE,
  LEVDIF           = TRUE,
  LESURF           = TRUE,
  LECOND           = TRUE,
  LECUMF           = TRUE,
  LEPCLD           = TRUE,
  LEEVAP           = TRUE,
  LEVGEN           = TRUE,
  LESSRO           = TRUE,
  LECURR           = FALSE,
  LEOCWA           = TRUE,
  LEGWDG           = TRUE,
  LEGWWMS          = TRUE,
  LEOZOC           = TRUE,
  LEQNGT           = TRUE,
  LERADI           = TRUE,
  LERADS           = TRUE,
  LESICE           = TRUE,
  LEO3CH           = TRUE,
  LEDCLD           = TRUE,
  LDUCTDIA         = FALSE,
  LELIGHT          = FALSE,
  RDEGREW          = 0.5,
  RSOUTW           = -81.0,
  RNORTW           = 81.0,
  LBUD23           = FALSE,   		! enable computation of physics tendencies
  LWCOU            = FALSE,  	! TRUE if wave model is to be run
  LWCOU2W          = TRUE,    ! TRUE if two-way interaction with wave model
  NSTPW            = 1,  ! frequency of call to wave model (timesteps)
/
&NAMPAR1
  NOUTTYPE         = 1
  LSPLIT           = TRUE,
  NWRTOUT          = 4,
  NFLDIN           = 0,
  NSTRIN           = 1,
/
&NAMPAR0
  LSTATS           = TRUE,
  LDETAILED_STATS  = FALSE,
  LSYNCSTATS 	   = FALSE,
  LSTATSCPU 	   = FALSE,
  NPRNT_STATS      = 70,
  LBARRIER_STATS   = FALSE,
  LBARRIER_STATS2  = FALSE,
  NPROC            = 72,
  NSPECRESMIN      = 160,
  NOUTPUT          = 1,
  MP_TYPE          = 2,
  MBX_SIZE         = 3200000,
/
&NAMDYNA
  LGRADSP          = TRUE,
  LRFRIC           = TRUE,
/
&NAMDYNCORE
  LAQUA 	   	   = FALSE,
/
&NAMDYN
  LMASCOR          = TRUE,
  LMASDRY          = FALSE,
  NITMP            = 5,
/
&NAMCLDP
  SCLCT_SWITCH     = 2,
/
&NAMCT0
  LNHDYN 	   	   = FALSE,
  CTYPE            = "fc",
  CFCLASS          = "rd",
  LARPEGEF 	   	   = FALSE,
  LFDBOP           = TRUE,
  LSMSSIG          = TRUE,
  LSPRT            = TRUE,
  LTWOTL           = TRUE,
  LSLPHY           = TRUE,
  N3DINI           = 0,
  NFRDHP           = 12,
  NFRDHFD          = 1,
  NFRSDI           = 1,
  NFRHIS           = 6,
  NFRPOS           = 6,
  NFRMASSCON       = 1,
  NFPOS            = 2,
  NPOSTS           = 0,
  NHISTS           = 0,
  NMASSCONS        = 0,
  NFRCO            = 0,
  NFRDHFZ          = 48,
  NDHFZTS          = 0,
  NDHFDTS          = 0,
  NUNDEFLD         = 1,
/
&NAMDDH
  BDEDDH(1:6,1)    = 4.0,1.0,0.0,50.0,0.0,49.0,
  NDHKD            = 120,
  LHDZON 	   	   = FALSE,
  LHDEFZ 	   	   = FALSE,
  LHDDOP 	   	   = FALSE,
  LHDEFD 	   	   = FALSE,
  LHDGLB           = TRUE,
  LHDPRG           = TRUE,
  LHDHKS           = TRUE,
/
&NAMGFL
  NERA40           = 14,
  YS_NL%LMASSFIX = TRUE,
  YR_NL%LMASSFIX = TRUE,
  YI_NL%LMASSFIX = TRUE,
  YL_NL%LMASSFIX = TRUE,
  YQ_NL%LMASSFIX = TRUE,
  LTRCMFMG       = TRUE,
  YO3_NL%LGP     = TRUE,
/
&NAMFPC
  CFPFMT = 'MODEL'
  NFP3DFP = 12
  NFP3DFT = 0
  NFP3DFV = 0
  NFP2DF = 0
  NFPPHY = 18
  MFP3DFP(:) = 3, 129, 130, 131, 132, 138, 155, 157, 133, 246, 247, 248
  MFP3DFT(:) = ,
  MFP3DFV = ,
  MFP2DF(:) = ,
  MFPPHY(:) = 167, 228, 164, 243, 31, 179, 142, 143, 146, 147, 165, 166,
              169, 176, 177, 178, 179, 235
  NRFP3S(:) = 1, 2, 3, 4, 5, 6, 7, 8, 9, 10, 11, 12, 13, 14, 15, 16, 17,
              18, 19, 20, 21, 22, 23, 24, 25, 26, 27, 28, 29, 30, 31,
              32, 33, 34, 35, 36, 37, 38, 39, 40, 41, 42, 43, 44, 45,
              46, 47, 48, 49, 50, 51, 52, 53, 54, 55, 56, 57, 58, 59,
              60
  RFP3P(:) = 100000, 92500, 85000, 70000, 60000, 50000, 40000, 30000,
             25000, 20000, 15000, 10000, 7000, 5000, 3000, 2000, 1000,
             500, 100
  RFP3TH(:) = 315.0, 325.0, 330.0
  NFPCLI = 0
  LFPQ = .false.
  LTRACEFP = .false.
  RFPCORR = 60000.0
/
&NAMPPC
  LRSACC           = TRUE,             ! reset accumulated fields to zero at model output frequency
/
&NAMFPD
  NLAT             = 400,
  NLON             = 800,
/
&NAMDIM
    NPROMA = -16 ! for a vector computer this number needs to be larger
/
&NAMRLX
/
&NAMVAR
  LMODERR          = .FALSE.,
  LJCDFI           = .FALSE.,
  LUSEJCDFI        = .FALSE.,
/
&NAMVV0
  LLFORCE_READ 	   = FALSE,
/
&NAMNMI
  LASSI            = TRUE,
/
&NAEAER
/
&NALBAR
/
&NALORI
/
&NAM_DISTRIBUTED_VECTORS
/
&NAM926
/
&NAMAFN
/
&NAMANA
/
&NAMARPHY
/
&NAMCA
/
&NAMCAPE
/
&NAMCFU
/
&NAMCHK
/
&NAMCHET
/
&NAMCLTC
/
&NAMCOM
/
&NAMCOS
/
&NAMCTAN
/
&NAMCUMF
/
&NAMCUMFS
/
&NAMCT1
/
&NAMCVA
/
&NAMDFHD
/
&NAMDFI
/
&NAMDIF
/
&NAMDIMO
/
&NAMDMSP
/
&NAMDPHY
/
&NAMEMIS_CONF
/
&NAMENKF
/
&NAMFA
/
&NAMFFT
/
&NAMFPDY2
/
&NAMFPDYH
/
&NAMFPDYP
/
&NAMFPDYS
/
&NAMFPDYT
/
&NAMFPDYV
/
&NAMFPEZO
/
&NAMFPF
/
&NAMFPIOS
/
&NAMFPPHY
/
&NAMFPSC2
/
&NAMFPSC2_DEP
/
&NAMFY2
/
&NAMGEM
/
&NAMGMS
/
&NAMGOES
/
&NAMGOM
/
&NAMGRIB
/
&NAMGWD
/
&NAMGWWMS
/
&NAMHLOPT
/
&NAMINI
/
&NAMIOMI
/
&NAMJBCODES
/
&NAMJFH
/
&NAMJG
/
&NAMJO
/
&NAMKAP
/
&NAMLCZ
/
&NAMLEG
/
&NAMLFI
/
&NAMMCUF
/
&NAMMETEOSAT
/
&NAMMTS
/
&NAMMTSAT
/
&NAMMTT
/
&NAMMUL
/
&NAMNASA
/
&NAMNN
/
&NAMNPROF
/
&NAMNUD
/
&NAMOBS
/
&NAMONEDVAR
/
&NAMOPH
/
&NAMOPTCMEM
/
&NAMPARAR
/
&NAMPHY
/
&NAMPHY0
/
&NAMPHY1
/
&NAMPHY2
/
&NAMPHY3
/
&NAMPHYDS
/
&NAMPONG
/
&NAMRAD15
/
&NAMRADCMEM
/
&NAMRCOEF
/
&NAMRINC
/
&NAMRIP
/
&NAMSATS
/
&NAMSCC
/
&NAMSCEN
/
&NAMSCM
/
&NAMSENS
/
&NAMSIMPHL
/
&NAMSKF
/
&NAMSPSDT
/
&NAMSPP
/
&NAMSSMI
/
&NAMSTA
/
&NAMSTOPH
/
&NAMTCWV
/
&NAMTESTVAR
/
&NAMTOPH
/
&NAMTOVS
/
&NAMTRAJP
/
&NAMTRM
/
&NAMVARBC
/
&NAMVARBC_AIREP
/
&NAMVARBC_ALLSKY
/
&NAMVARBC_GBRAD
/
&NAMVARBC_RAD
/
&NAMVARBC_SFCOBS
/
&NAMVARBC_TCWV
/
&NAMVARBC_TO3
/
&NAMVAREPS
/
&NAMVDOZ
/
&NAMVFP
/
&NAMVRTL
/
&NAMVV1
/
&NAMVV2
/
&NAMVWRK
/
&NAMWAVELETJB
/
&NAMXFU
/
&NAMZDI
/
&NAPHLC
/
&NAV1IS
/
&NAEPHLI
/
&NAMPPVI
/
&NAMSPNG
/
&NAMTHLIM
/
&NAMOOPS
/
&NAMINTFLEX
/
&NAMIAU
/
&NAMDIM_TRAJ
/
&NAMVDF
/
&NAMGWDIAG
/
&NAMTRANS0
/
&NAMMETHOX
/
&NAM_ATLAS_IFS
/
&NAETLDIAG
/
