&env_nml
    nicecat = 5
    nfsdcat = 1
    nicelyr = 4
    nsnwlyr = 4
    ntraero = 0
    trzaero = 0
    tralg = 0
    trdoc = 0
    trdic = 0
    trdon = 0
    trfed = 0
    trfep = 0
    nbgclyr = 0
    trbgcz = 0
    trzs = 0
    trbri = 0
    trage = 0
    trfy = 0
    trlvl = 0
    trpnd = 0
    trbgcs = 0
    ndtd = 1
/

&grid_nml
    kcatbound = 1
/

&tracer_nml
    tr_iage = .false.
    tr_fy = .false.
    tr_lvl = .false.
    tr_pond_cesm = .false.
    tr_pond_topo = .false.
    tr_pond_lvl = .false.
    tr_aero = .false.
    tr_fsd = .false.
/

&thermo_nml
    kitd = 1
    ktherm = 1
    conduct = 'bubbly'
    a_rapid_mode = 0.0005
    rac_rapid_mode = 10.0
    aspect_rapid_mode = 1.0
    dsdt_slow_mode = -5e-08
    phi_c_slow_mode = 0.05
    phi_i_mushy = 0.85
    ksno = 0.3
/

&shortwave_nml
    shortwave = 'ccsm3'
    albedo_type = 'ccsm3'
    albicev = 0.78
    albicei = 0.36
    albsnowv = 0.98
    albsnowi = 0.7
    albocn = 0.1
    ahmax = 0.3
    r_ice = 0.0
    r_pnd = 0.0
    r_snw = 1.5
    dt_mlt = 1.5
    rsnw_mlt = 1500.0
    kalg = 0.6
/

&ponds_nml
    hp1 = 0.01
    hs0 = 0.0
    hs1 = 0.03
    dpscale = 0.001
    frzpnd = 'hlid'
    rfracmin = 0.15
    rfracmax = 1.0
    pndaspect = 0.8
/

&forcing_nml
    formdrag = .false.
    atmbndy = 'default'
    calc_strair = .true.
    calc_tsfc = .true.
    highfreq = .false.
    natmiter = 5
    ustar_min = 0.0005
    emissivity = 0.95
    fbot_xfer_type = 'constant'
    update_ocn_f = .false.
    l_mpond_fresh = .false.
    tfrz_option = 'linear_salt'
    oceanmixed_ice = .true.
    wave_spec_type = 'none'
/

&dynamics_nml
    kstrength = 1
    krdg_partic = 1
    krdg_redist = 1
    mu_rdg = 3
    cf = 17.0
    p_star = 27000.0
    c_star = 20.0
/

&nml_list_icepack
    io_list_icepack = 'aicen     ', 1, 'm', 4, 'vicen     ', 1, 'm', 4,
                      'vsnon     ', 1, 'm', 4
/
