
&NAMCVER
LVERTFE=true,
NVSCH=3,
LRNHC1=false,
LVFE_GWMPA=true,
LVFE_GW=true,
LVFE_Z_TERM=true,
LVFE_X_TERM=true,
LVFE_LAPL_BC=true,
LVFE_LAPL=true,
/
&NAMMCC
LMCCEC=true,
LMCCIEC=false,
/
&NAMRES
NFRRES=245448,
/
&NAERAD
CRTABLEDIR='./rtables/'
NRPROMA=0,
/
&NAEPHY
LEPHYS=true,
LEVDIF=true,
LESURF=true,
LECOND=true,
LECUMF=true,
LEPCLD=true,
LEEVAP=true,
LEVGEN=true,
LESSRO=true,
LECURR=false,
LEGWDG=true,
LEGWWMS=true,
LEOZOC=true,
LEQNGT=true,
LERADI=true,
LERADS=true,
LESICE=true,
LEO3CH=true,
LEDCLD=true,
LDUCTDIA=false,
!LWCOU=true,
!LWCOU2W=true,
LWCOU=false,
LWCOU2W=false,
NSTPW=1,
RDEGREW=1.5,
RSOUTW=-81.0,
RNORTW=81.0,
/
&NAMPAR1
LSPLIT=true,
NFLDIN=0,
NSTRIN=1,
NOUTTYPE=1,
/
&NAMPAR0
LSTATS=true,
LDETAILED_STATS=false,
LSYNCSTATS=false,
LSTATSCPU=false,
NPRNT_STATS=36,
LBARRIER_STATS=false,
LBARRIER_STATS2=false,
NPROC=384,
NSPECRESMIN=160,
NOUTPUT=1,
MP_TYPE=2,
MBX_SIZE=128000000,
/
&NAMDYNCORE
LAQUA=false,
/
&NAMDYN
TSTEP=900,
LMASCOR=true,
/
&NAMNMI
LASSI=false,
/
&NAMIOS
CFRCF="./rcf",
CIOSPRF="./srf",
/
&NAMFPG
NFPLEV=91,
NFPMAX=159,
/
&NAMCT0
LNHDYN=false,
NCONF=1,
CTYPE="fc",
CNMEXP="KCM2",
CFCLASS="rd",
LECMWF=true,
LARPEGEF=false,
LFDBOP=false,
LSMSSIG=false,
LSPRT=true,
LSLAG=true,
LTWOTL=true,
LPC_FULL=false,
LPC_CHEAP=false,
LPC_NESC=false,
LPC_NESCT=false,
LSLPHY=true,
LRFRIC=true,
NSTOP=245448,
N3DINI=0,
NFRDHP=12,
NFRDHFD=1,
NFRSDI=1,
NFRPOS=6,
NFRHIS=6,
NFRMASSCON=24,
NFPOS=2,
NPOSTS=0,
NHISTS=0,
NMASSCONS=0,
NFRCO=0,
NFRDHFZ=48,
NDHFZTS=0,
NDHFDTS=0,
LHOURSTEP=.true.,
/
&NAMDDH
BDEDDH(1:6,1)=4.0,1.0,0.0,50.0,0.0,49.0,
NDHKD=120,
LHDZON=false,
LHDEFZ=false,
LHDDOP=false,
LHDEFD=false,
LHDGLB=true,
LHDPRG=true,
LHDHKS=true,
/
&NAMGFL
NERA40=0,
YQ_NL%LGP=true,
YQ_NL%LSP=false,
YL_NL%LGP=true,
YI_NL%LGP=true,
YA_NL%LGP=true,
YO3_NL%LGP=true,
YQ_NL%LGPINGP=true,
/
&NAMFPC
CFPFMT="MODEL",
NFP3DFS=5,!1,!5,
NFP3DFT=0,
NFP3DFV=0,
MFP3DFS(:)=131,132,130,133,135 !!u,v,t,q
!MFP3DFS(:)=133, !!u,v,t,q
!MFP3DFT=60,
!MFP3DFV=133,
NFP2DF=3, !0,!3,
MFP2DF=129,134,152,
NFPPHY=40,
NFP3DFP=0,
MFPPHY(:)=167,235,51,52,151, 134,165,166,207,168, 129,228,144,143,182, 44,180,181,146,147, 175,176,169,177,210, 211,164,212,178,179, 208,209,157,135,78, 79,203,8,9,210061
NRFP3S(:)=1,2,3,4,5,6,7,8,9,10,11,12,13,14,15,16,17,18,19,20,21,22,23,24,25,26,27,28,29,30,31,32,33,34,35,36,37,38,39,40,41,42,43,44,45,46,47,48,49,50,51,52,53,54,55,56,57,58,59,60,61,62,63,64,65,66,67,68,69,70,71,72,73,74,75,76,77,78,79,80,81,82,83,84,85,86,87,88,89,90,91,
!RFP3P(:)=!100000.0,92500.0,85000.0,70000.0,50000.0,40000.0,30000.0,25000.0,20000.0,15000.0,10000.0,7000.0,5000.0,3000.0,2000.0,1000.0,700.0,500.0,300.0,200.0,100.0,
NFPCLI=0,
LFPQ=false,
LTRACEFP=false,
RFPCORR=60000.,
/
&NAMFPD
NLAT=160,
NLON=320,
/
&NAMDIM
NPROMA=-16,
NUNDEFLD=-999999,
/
  &NAMRLX
  /
  &NAMVAR
   LMODERR=.false.,
   LJCDFI=.false.,
   LUSEJCDFI=.false.,
  /
&NAMVV0
!LLFORCE_READ=false,
/
&NAEAER
/
&NAEPHY
/
&NALBAR
/
&NALORI
/
&NAM_DISTRIBUTED_VECTORS
/
&NAM926
/
&NAMAFN
/
&NAMANA
/
&NAMARPHY
/
&NAMCA
/
&NAMCAPE
/
&NAMCFU
/
&NAMCHK
/
&NAMCHET
/
&NAMCLDP
/
&NAMCLTC
/
&NAMCMIP
  LGHGCMIP5=.false., ! read CMIP5 gas 
  LGHGPI=.true., !pi-control run (keep GHG at 1850 levels)
/
&NAMCOM
/
&NAMCOS
/
&NAMCPLNG
  LL_SKIPGRIDWRITE=.true., ! skip grid writing
  LL_DEBUGCPL=.true., !print info in cplng setup
  CGRDNAM='atmo', !name of atmosphere grid
  RNEMOSOUTH=-77.0105 !southern boundary of NEMO
/
&NAMCTAN
/
&NAMCUMF
/
&NAMCUMFS
/
&NAMCT1
/
&NAMCVA
/
&NAMDDH
/
&NAMDFHD
/
&NAMDFI
/
&NAMDIF
/
&NAMDIM
/
&NAMDIMO
/
&NAMDMSP
/
&NAMDPHY
/
&NAMDYNA
/
&NAMDYNCORE
/
&NAMEMIS_CONF
/
&NAMENKF
/
&NAMFA
/
&NAMFFT
/
&NAMFPC
/
&NAMFPD
/
&NAMFPDY2
/
&NAMFPDYH
/
&NAMFPDYP
/
&NAMFPDYS
/
&NAMFPDYT
/
&NAMFPDYV
/
&NAMFPEZO
/
&NAMFPF
/
&NAMFPIOS
/
&NAMFPPHY
/
&NAMFPSC2
/
&NAMFPSC2_DEP
/
&NAMFY2
/
&NAMGEM
/
&NAMGFL
/
&NAMGMS
/
&NAMGOES
/
&NAMGOM
/
&NAMGRIB
   NREFERENCE=18500101,
   NJTKDATE=19770101,
   NJTKOFFSETSTEP=236688,
/
&NAMGWD
/
&NAMGWWMS
/
&NAMHLOPT
/
&NAMINI
/
&NAMIOMI
/
&NAMIOS
/
&NAMJBCODES
/
&NAMJFH
/
&NAMJG
/
&NAMJO
/
&NAMKAP
/
&NAMLCZ
/
&NAMLEG
/
&NAMLFI
/
&NAMMCC
/
&NAMMCUF
/
&NAMMETEOSAT
/
&NAMMTS
/
&NAMMTSAT
/
&NAMMTT
/
&NAMMUL
/
&NAMNMI
/
&NAMNASA
/
&NAMNN
/
&NAMNPROF
/
&NAMNUD
/
&NAMOBS
/
&NAMONEDVAR
/
&NAMOPH
/
&NAMOPTCMEM
/
&NAMPARAR
/
&NAMPAR1
/
&NAMPHY
/
&NAMPHY0
/
&NAMPHY1
/
&NAMPHY2
/
&NAMPHY3
/
&NAMPHYDS
/
&NAMPPC
  LRSACC=true ! turn of accumulation of fluxes
/
&NAMPONG
/
&NAMRAD15
/
&NAMRADCMEM
/
&NAMRCOEF
/
&NAMRINC
/
&NAMRIP
/
&NAMSATS
/
&NAMSCC
/
&NAMSCEN
/
&NAMSCM
/
&NAMSENS
/
&NAMSIMPHL
/
&NAMSKF
/
&NAMSPSDT
/
&NAMSSMI
/
&NAMSTA
/
&NAMSTOPH
/
&NAMTCWV
/
&NAMTESTVAR
/
&NAMTOPH
/
&NAMTOVS
/
&NAMTRAJP
/
&NAMTRANS
/
&NAMTRM
/
&NAMVAR
/
&NAMVARBC
/
&NAMVARBC_AIREP
/
&NAMVARBC_ALLSKY
/
&NAMVARBC_GBRAD
/
&NAMVARBC_RAD
/
&NAMVARBC_SFCOBS
/
&NAMVARBC_TCWV
/
&NAMVARBC_TO3
/
&NAMVAREPS
/
&NAMVDOZ
/
&NAMVFP
/
&NAMVRTL
/
&NAMVV0
/
&NAMVV1
/
&NAMVV2
/
&NAMVWRK
/
&NAMWAVELETJB
/
&NAMXFU
/
&NAMZDI
/
&NAPHLC
/
&NAV1IS
/
&NAEPHLI
/
&NAMCVER
/
&NAMPPVI
/
&NAMSPNG
/
&NAMRLX
/
&NAMTHLIM
/
&NAMOOPS
/
&NAMECECFG
FOCI_CPL_NEMO_LIM=.true. 
/

