&NAMECECFG
ECE_CPL_AMIP=.false.
ECE_CPL_NEMO_LIM=.false.
ECE_CPL_FESOM_FESIM=.true.
/
&NAMECECMIP6
/
&NAMIOS
CFRCF="./rcf",
CIOSPRF="./srf",
/
&NAMGRIB
CFCLASS="rd",
NCYCLE=154,
/
&NAMCVER
LVERTFE=true,
NVSCH=3,
LVFE_GWMPA=true,
LVFE_GW=false,
LVFE_Z_TERM=false,
LVFE_X_TERM=false,
LVFE_LAPL_BC=true,
LVFE_LAPL=true,
NDLNPR=0,
/
&NAMMCC
LMCCEC=true,
LMCCIEC=false,
LMCC_COMPO=false,
LMCC04=false,
LMCCDYNSEAICE = .true.
LNEMOLIMCUR = true
/
&NAMTRANS
LUSEFLT=false,
LFFTW=true,
/
&NAMRES
/
&NAERAD
CRTABLEDIR='./rtables/',
NRPROMA=0,
LECOMPGRID=true,
/
&NAEPHYM
LEPHYS=true,
LEVDIF=true,
LESURF=true,
LECOND=true,
LECUMF=true,
LEPCLD=true,
LEEVAP=true,
LEVGEN=true,
LESSRO=true,
LECURR=true,
LEOCWA=true,
LEGWDG=true,
LEGWWMS=true,
LEOZOC=true,
LEQNGT=true,
LERADI=true,
LERADS=true,
LESICE=true,
LEO3CH=true,
LO3CH_HLO=true,
CO3CHEM="H1.0",
LEDCLD=true,
LDUCTDIA=false,
LDIAGTURB_EC=false,
LELIGHT=false,
LWCOU=true,
LWCOU2W=true,
LWCOUHMF=false,
LWCOURNW=false,
NSTPW=1,
LSLPHY=true,
LESNML=true,
NSNMLWS=2,
LEFARQUHAR=true,
LEOPTSURF=false,
LEAIRCO2COUP=false,
LEC4MAP=true,
LEAGS=false,
/
&NAMPAR1
NOUTTYPE=1,
LSPLIT=true,
NWRTOUT=4,
NFLDIN=0,
NSTRIN=1,
/
&NAMPAR0
LSTATS=true,
LDETAILED_STATS=false,
LSYNCSTATS=false,
LSTATSCPU=false,
NPRNT_STATS=62,
LBARRIER_STATS=false,
LBARRIER_STATS2=false,
NPROC=62,
NSPECRESMIN=96,
NOUTPUT=1,
MP_TYPE=1,
MBX_SIZE=0,
/
&NAMDYNA
LSLAG=true,
LNHEE=false,
LNHQE=false,
LGRADSP=false,
/
&NAMDYNCORE
LAQUA=false,
/
&NAMDYN
LMASCOR=true,
NITMP=3,
/
&NAMNMI
LASSI=false,
/
&NAMCT0
LARPEGEF=false,
LFDBOP=false,
LSMSSIG=false,
N3DINI=0,
NFRDHP=12,
NFRDHFD=1,
NFRSDI=1,
NFRPOS=24,
NFRHIS=24,
NFRMASSCON=1,
NFPOS=2,
NPOSTS=0,
NHISTS=0,
NMASSCONS=0,
NFRCO=4,
NFRDHFZ=48,
NDHFZTS=0,
NDHFDTS=0,
NUNDEFLD=-999999,
CMETER="xmeter",
CEVENT="xevent",
/
&NAMDDH
BDEDDH(1:6,1)=4.0,1.0,0.0,50.0,0.0,49.0,
NDHKD=72,
LHDZON=false,
LHDEFZ=false,
LHDDOP=false,
LHDEFD=false,
LHDGLB=true,
LHDPRG=true,
LHDHKS=true,
/
&NAMIO_SERV
NPROCESS_LEVEL=5,
NIO_SERV_METHOD=2,
NMSG_LEVEL_CLIENT=0,
NMSG_LEVEL_SERVER=1,
/
&NAMGFL
YQ_NL%LGP=true,
YQ_NL%LSP=false,
YL_NL%LGP=true,
YI_NL%LGP=true,
YA_NL%LGP=true,
YO3_NL%LGP=true,
/
&NAMFPC
/
&NAMDIM
NPROMA=0,
/
&NAMDPHY
NCSNEC=5,
/
&NAMGEM
LNONHYD_GEOM=false,
NHTYP=2,
/
&NAMRIP
TSTEP=1800.0,
CSTOP='h240',
/
&NAMARG
NCONF=1,
CNMEXP="ab45",
/
&NAMRLX
/
&NAMVAR
 LMODERR=.false.,
 LJCDFI=.false.,
 LUSEJCDFI=.false.,
 LECV=false,
/
&NAETLDIAG
/
&NAMVV0
 LLFORCE_READ=false,
/
&NAEAER
/
&NALBAR
/
&NALORI
/
&NAM_DISTRIBUTED_VECTORS
/
&NAM926
/
&NAMAFN
/
&NAMANA
/
&NAMARPHY
/
&NAMCA
/
&NAMCAPE
/
&NAMCFU
/
&NAMCHK
/
&NAMCHET
/
&NAMCLDP
/
&NAMCLTC
/
&NAMCOM
/
&NAMCOS
/
&NAMCTAN
/
&NAMCUMF
/
&NAMCUMFS
/
&NAMCT1
/
&NAMCVA
/
&NAMDFHD
/
&NAMDFI
/
&NAMDIF
/
&NAMDIMO
/
&NAMDMSP
/
&NAMDYNA_STATIC
/
&NAMEMIS_CONF
/
&NAMENKF
/
&NAMFA
/
&NAMFFT
/
&NAMFPD
/
&NAMFPDY2
/
&NAMFPDYH
/
&NAMFPDYP
/
&NAMFPDYS
/
&NAMFPDYT
/
&NAMFPDYV
/
&NAMFPEZO
/
&NAMFPF
/
&NAMFPG
/
&NAMFPIOS
/
&NAMFPPHY
/
&NAMFPSC2
/
&NAMFPSC2_DEP
/
&NAMFY2
/
&NAMGMS
/
&NAMGOES
/
&NAMGOM
/
&NAMGWD
/
&NAMGWWMS
/
&NAMHLOPT
/
&NAMINI
/
&NAMIOMI
/
&NAMJBCODES
/
&NAMJFH
/
&NAMJG
/
&NAMJO
/
&NAMKAP
/
&NAMLCZ
/
&NAMLEG
/
&NAMLFI
/
&NAMMCUF
/
&NAMMETEOSAT
/
&NAMMTS
/
&NAMMTSAT
/
&NAMMTT
/
&NAMMUL
/
&NAMNASA
/
&NAMNN
/
&NAMNPROF
/
&NAMNUD
/
&NAMOBS
/
&NAMONEDVAR
/
&NAMOPH
/
&NAMOPTCMEM
/
&NAMPARAR
/
&NAMPHY
/
&NAMPHY0
/
&NAMPHY1
/
&NAMPHY2
/
&NAMPHY3
/
&NAMPHYDS
/
&NAMPPC
/
&NAMPONG
/
&NAMRAD15
/
&NAMRADCMEM
/
&NAMRCOEF
/
&NAMRINC
/
&NAMSATS
/
&NAMSCC
/
&NAMSCEN
/
&NAMSCM
/
&NAMSENS
/
&NAMSIMPHL
/
&NAMSKF
/
&NAMSPSDT
/
&NAMSPP
/
&NAMSSMI
/
&NAMSTA
/
&NAMSTOPH
/
&NAMTCWV
/
&NAMTESTVAR
/
&NAMTOPH
/
&NAMTOVS
/
&NAMTRAJP
/
&NAMTRM
/
&NAMVARBC
/
&NAMVARBC_AIREP
/
&NAMVARBC_ALLSKY
/
&NAMVARBC_GBRAD
/
&NAMVARBC_RAD
/
&NAMVARBC_SFCOBS
/
&NAMVARBC_TCWV
/
&NAMVARBC_TO3
/
&NAMVAREPS
/
&NAMVDOZ
/
&NAMVFP
/
&NAMVRTL
/
&NAMVV1
/
&NAMVV2
/
&NAMVWRK
/
&NAMWAVELETJB
/
&NAMXFU
/
&NAMZDI
/
&NAPHLC
/
&NAV1IS
/
&NAEPHLI
/
&NAMPPVI
/
&NAMSPNG
/
&NAMTHLIM
/
&NAMOOPS
/
&NAMINTFLEX
/
&NAMIAU
/
&NAMDIM_TRAJ
/
&NAMVDF
/
&NAMGWDIAG
/
&NAMTRANS0
/
&NAMMETHOX
/
&NAM_ATLAS_IFS
/
&NAMACV
/
&NAM_MGRIDS_ADVECTION
/
&NAMTRAJ
/
&NAMSATSIM
/
&NAMCMEM_MW
/
&NAMPHMSE
/
&NAMNORGWD
/
&NAMCLRADLID
/
&NAMDVISI
/
&NAM_MGRIDS_ADVECTION
/
&NAMNUDGLH
/
&NAMPERTOBS
/
&NAMVARBC_MODES
/
