&NAMAMIP
    RunLengthSec = 1
    TimeStepSec  = 1
    StartYear    = 1
    StartMonth   = 1
    StartDay     = 1
    FixYear      = 1
    FileListSST  = 1
    FileListSIC  = 1
    LDebug       = false
    LInterpolate = true
