&NAMAMIP
    RunLengthSec = ${RUNTIME_amip}
    TimeStepSec  = ${TIME_STEP_amip}
    StartYear    = ${START_DATE_amip:0:4}
    StartMonth   = ${START_DATE_amip:4:2}
    StartDay     = ${START_DATE_amip:6:2}
    FixYear      = ${CMIP_FIXYEAR_amip}
    FileListSST  = ${flist_sst}
    FileListSIC  = ${flist_sic}
    LDebug       = false
    LInterpolate = true
